    8,  'PVGU1',    '1',     0.02,     0.02,      0.5,      0.8,       20,      0.8,       20
            0.2,      0.1 /    
    16  'GENROU' 1     8.3750      0.19980      0.20000      0.19980
          2.6360       0.0000       1.8548       1.8540      0.25680
         0.35680      0.15000      0.10000      0.30000E-01  0.40000    /
    16  'SEXS'   1    0.10000       10.000       100.00      0.10000
          0.0000       6.0000    /
    16  'IEESGO' 1     0.0000       0.0000      0.40000E-01  0.30000
          7.0000       0.0000       20.000      0.70000       0.0000
         2.00000       0.0000    /
    17  'GENROU' 1     8.3750      0.19980      0.20000      0.19980
          2.6360       0.0000       1.8548       1.8540      0.25680
         0.35680      0.15000      0.10000      0.30000E-01  0.40000    /
    17  'SEXS'   1    0.10000       10.000       100.00      0.10000
          0.0000       6.0000    /
    17  'IEESGO' 1     0.0000       0.0000      0.40000E-01  0.30000
          7.0000       0.0000       20.000      0.70000       0.0000
         2.00000       0.0000    /
    18  'GENCLS' 1     6.0000       0.0000    /
    19  'GENSAL' 1     8.9600      0.40000E-01  0.60000E-01   9.5515    
          0.0000      0.36140      0.23980      0.15050      0.99000E-01
         0.83200E-01   0.0000       0.0000    /
    19  'SEXS'   1    0.25000       4.0000       200.00      0.20000E-01
         -4.6000       6.0000    /
    19  'IEEEG3' 1    0.20000      0.50000E-01  0.15000     -0.15000    
          1.0000       0.0000      0.40000E-01  0.40000       5.0000    
          2.0000      0.50000       1.0000       1.5000       1.0000    /
    20  'GENROU' 1     8.4500      0.47000E-01  0.93800      0.47000E-01
          2.7780       0.0000       2.0811       2.0000      0.30050
         0.41730      0.15000      0.10000      0.30000E-01  0.40000    /
    20  'SEXS'   1    0.10000       10.000       100.00      0.10000
          0.0000       6.0000    /
    20  'IEESGO' 1     0.0000       0.0000      0.40000E-01  0.30000
          7.0000       0.0000       20.000      0.70000       0.0000
          1.0400       0.0000    /
		  
 'DC1  '     'CDC4T '        5.0000       5.0000      0.10000
         0.10000      0.60000      0.65000       60.000       528.00
         0.95000      0.20000       100.00       1000.0      0.30000
         0.30000       100.00       200.00       1500.0       400.00
          3000.0       600.00       4000.0      0.10000    /		  