      1 'GENCLS' 1     9.57085    0.0000         /
      2 'GENCLS' 1     3.33333    0.0000         /    
      3 'GENCLS' 1     2.35156    0.0000         /      